PowerFlowSolver/Test/PerfTestCase10000Report.txt
Power Solutions
电力系统潮流求解实用程序
Power Flow Solver
1.0.5514.31321
Copyright ? Chen [CXuesong.] 2015

行1：过时的指令。已忽略。
行4：过时的指令。已忽略。
文件分析完毕。
求解稳态潮流……

        累计用时       迭代次数   最大功率误差
    00:00:01.8470759          0   3.9153E+000
    00:00:23.8700168          1   7.1555E+001
    00:00:40.0137527          2   2.7284E+001
    00:00:55.3602984          3   3.6320E+006
    00:01:11.3717464          4   8.8333E+005
    00:01:26.7890954          5   3.3695E+006
    00:01:42.3061989          6   1.2512E+012

迭代6次，全程用时00:01:57.0522707。
（智能迭代）检测到迭代过程不收敛而中断。
已保存：E:\My Files\Visual Studio 2013\Projects\PowerFlowSolver\PowerFlowSolver\bin\Release\LastQuickSolveReport.txt。
请按任意键继续. . .


Power Solutions
电力系统潮流求解实用程序
Power Flow Solver
1.0.5514.31321
Copyright © Chen [CXuesong.] 2015

电力网络稳态潮流分析报告
案例：性能测试样例

报告生成于 2015-2-5 17:27:11

网络统计信息 ==========
母线10000条。运算总节点10000个，
其中PQ节点9000个，PV节点999个。
平衡节点：Bus1。共计10498条支路。

求解信息 ==========
（智能迭代）检测到迭代过程不收敛而中断。
使用牛顿-拉夫逊法迭代6次，最大功率误差：1.2512E+012 p.u.。
迭代次数  最大功率误差
     0    3.9153E+000 
     1    7.1555E+001 
     2    2.7284E+001 
     3    3.6320E+006 
     4    8.8333E+005 
     5    3.3695E+006 
     6    1.2512E+012 

节点潮流============
        母线              电压         相位       有功出力     无功出力     有功负载     无功负载   支路数
                         [p.u.]       [ °]        [p.u.]       [p.u.]       [p.u.]      [p.u.]
Bus1                         1.05            0     -1586.31     -1846.52         0.05     0.729973      1
Bus10                 4.24171E+06      85.7026     -1272.07      19964.3         0.05     0.770531      2
Bus100                       1.05      124.297    -0.653181     -123.293         0.05     0.777939      1
Bus1000                      1.05      95.3034     -23.6717      13.3398         0.05     0.725395      1
Bus10000                     1.05      131.459     0.450665    -0.883349         0.05      0.30924      1
Bus1001                      1.05      84.7341      23.4755      96.1486         0.05     0.441772      1
Bus1002                   50085.3      178.386     -179.623       359.84         0.05     0.941462      2
Bus1003               3.17637E+06     -124.923     -23224.7     -20278.9         0.05     0.956684      2
Bus1004               1.94146E+06     -48.3412     -4671.42      -110437         0.05      0.14518      2
Bus1005                    391152     -88.0384       225389  1.51676E+06         0.05     0.286889      2
Bus1006               2.39862E+06      44.7568     -12692.5     -19662.3         0.05     0.810244      3
Bus1007                    485275       117.12      -687461       819872         0.05     0.725864      3
Bus1008                    183702      100.487  2.04762E+06  1.82073E+06         0.05    0.0527707      2
Bus1009               1.24796E+06      169.154      -141980  2.05989E+06         0.05     0.863679      2
Bus101                       1.05     -16.6173      4.80407      16.7926         0.05     0.359148      1
Bus1010                    776316     -94.5351      -122678       644068         0.05     0.106419      2
Bus1011               1.50924E+06      134.705      -302669       527579         0.05      0.63521      4
Bus1012                    784770      124.568      49072.2       158127         0.05     0.451627      2
Bus1013                   89995.7       32.058      36239.6      52272.9         0.05    0.0667679      2
Bus1014               1.50476E+06     -61.4369      23521.3        15589         0.05     0.481282      2
Bus1015               1.67503E+06     -11.3777      13029.9      1672.76         0.05    0.0641514      2
Bus1016               1.28099E+06     -60.1312      9759.23       376.03         0.05     0.407272      2
Bus1017                    551668      8.23542     -2351.63      5525.81         0.05     0.214593      2
Bus1018                    238359      -7.3793     -1981.72      2058.76         0.05     0.195609      2
Bus1019                   37997.6     -39.7572      98.6885      301.349         0.05     0.584473      2
Bus102                2.21022E+06     -148.109      47.9505      33.6982         0.05     0.185329      2
Bus1020                      1.05     -66.0215      12.7415      1.46531         0.05     0.578911      1
Bus1021                      1.05      164.574      2583.61      735.139         0.05     0.419902      1
Bus1022                   3817.59     -62.8352       157720       597732         0.05     0.894305      2
Bus1023                   32662.1     -166.259  7.22292E+06  3.39427E+06         0.05     0.123957      2
Bus1024                    121269     -27.9192 -8.66139E+06  5.36354E+07         0.05     0.281108      2
Bus1025                    346883      5.72221  2.19049E+07  2.62075E+07         0.05  0.000780686      2
Bus1026               1.77944E+06     -63.1596      -772192      -548149         0.05     0.864216      3
Bus1027               3.70967E+06     -6.50086     -20386.7     -5210.87         0.05     0.135682      3
Bus1028               1.71127E+06     -84.8087     -10978.4      85551.8         0.05     0.301833      2
Bus1029               1.53852E+06      -19.588      24349.2      69558.7         0.05     0.873595      2
Bus103                3.37894E+06      77.1005      18.6157      97.4897         0.05     0.643656      2
Bus1030               2.55263E+06      -87.525     -7490.31      51464.9         0.05    0.0794913      2
Bus1031                    839464     -66.7209       214380       582436         0.05     0.670493      4
Bus1032               1.72029E+06      120.696      51485.9      47789.4         0.05     0.970719      2
Bus1033               1.45509E+06       132.78     -52339.9       188302         0.05     0.453693      2
Bus1034                    383654     -87.9373        21427       135357         0.05     0.357342      2
Bus1035                    142621      -74.737        43241      30010.4         0.05      0.14226      2
Bus1036                   26113.3     -19.2607     -6965.71      34569.7         0.05     0.183614      2
Bus1037                   51607.7     -76.6827     -241.216     -1056.57         0.05      0.16771      2
Bus1038                   7975.51     -78.1096     -69.0693         1095         0.05     0.253371      2
Bus1039                   2448.19     -85.6673      427.037      804.454         0.05     0.174272      2
Bus104                2.82781E+06     -19.1903       184.75      148.893         0.05     0.562676      2
Bus1040                      1.05      106.349      -32.814     -95.3784         0.05     0.348129      1
Bus1041                      1.05      107.875       34.137     -731.205         0.05      0.32894      1
Bus1042                   1869.37      87.0324      24694.1      17038.8         0.05     0.994031      2
Bus1043                   6578.52      91.2081     -36808.9       177556         0.05     0.724205      2
Bus1044                   30828.6      100.613     -1165.07       220850         0.05     0.202133      2
Bus1045                   33635.9      -26.145       365587       114388         0.05    0.0549797      2
Bus1046                   67097.7     -106.079       660168  1.56177E+06         0.05     0.805568      3
Bus1047                    427432      116.921     -31444.4      4314.31         0.05     0.827069      3
Bus1048                    542860      17.3531       110204     -22681.2         0.05    0.0296159      2
Bus1049                    556759     -44.6778      -435231       172114         0.05     0.495382      2
Bus105                3.75917E+07     -128.329      412.935      2171.43         0.05     0.216069      2
Bus1050                    159041      47.6421       193091  2.25973E+06         0.05     0.551968      2
Bus1051                   54278.1     -19.8366  1.68158E+06  2.18507E+06         0.05       0.1013      4
Bus1052                   39646.6     -105.258      -398860  1.14617E+06         0.05      0.90525      2
Bus1053                   17623.2     -158.925       428885       548798         0.05     0.624232      2
Bus1054                   20402.8     -156.994      -185729       121400         0.05     0.591751      2
Bus1055                   1800.29      55.9654      33664.5      42801.9         0.05     0.305493      2
Bus1056                   9079.96     -72.0175      49192.2      28299.3         0.05     0.547468      2
Bus1057                   279.624     -38.9872      648.676     -422.378         0.05     0.817504      2
Bus1058                   47.2857     -108.955      41.9473      93.7163         0.05     0.675577      2
Bus1059                   15.9869     -87.4728     -7.80334      47.9176         0.05     0.144399      2
Bus106                1.25363E+08      31.1751      508.991      1241.96         0.05     0.870196      3
Bus1060                      1.05      118.307       5.6812       21.529         0.05     0.422673      1
Bus1061                      1.05      140.406      39.6039      109.518         0.05     0.674562      1
Bus1062                   96.3205     -25.2985      56.7763      80.8107         0.05     0.424031      2
Bus1063                   148.122      21.4361      -86.883       277.56         0.05     0.179176      2
Bus1064                   500.447      21.6373      293.763      214.652         0.05     0.784188      2
Bus1065                   1611.22      169.837      2857.27      4930.13         0.05     0.435927      2
Bus1066                   45277.4      98.4012      -159617       611171         0.05     0.664491      3
Bus1067                   2131.98      169.329  1.12611E+06  3.56234E+06         0.05     0.997934      3
Bus1068                   51919.5      133.576      -210669  1.15475E+06         0.05     0.709426      2
Bus1069                   19967.2     -164.997      -145926       405476         0.05     0.339022      2
Bus107                2.17266E+07      81.6955      830.044      1216.04         0.05     0.791566      3
Bus1070                    119535      7.68777     -842.463      2295.92         0.05     0.880537      2
Bus1071                    186591     -70.9747       464421       699941         0.05     0.239562      4
Bus1072                   47488.5     -154.764     -63152.9       117591         0.05     0.961222      2
Bus1073                   6060.06      118.086       116701       100579         0.05    0.0213368      2
Bus1074                   23805.7      118.507       -22180      40146.2         0.05     0.236344      2
Bus1075                   3155.42      155.984      1778.54      10155.4         0.05     0.249972      2
Bus1076                   415.776     -20.6089      291.648      1021.87         0.05     0.425871      2
Bus1077                   165.655       47.765      208.506      228.813         0.05     0.170099      2
Bus1078                   8.52196     -29.6019     -1.50391     -14.3072         0.05     0.921825      2
Bus1079                   16.0066     -133.627     -4.69172      53.1153         0.05     0.226128      2
Bus108                6.79915E+07      107.955       1249.3      3490.46         0.05     0.556061      2
Bus1080                      1.05      46.7847       2.3064      5.77114         0.05     0.195212      1
Bus1081                      1.05      56.1761      31.8504      82.7393         0.05    0.0371466      1
Bus1082                   20.3522      61.9335     -299.519     -277.429         0.05     0.106066      2
Bus1083                   1979.22      108.691     -39297.1      83586.7         0.05      0.80645      2
Bus1084                   682.952     -104.639      26619.4       270537         0.05     0.321627      2
Bus1085                   8576.83     -102.933       285042       727668         0.05     0.978191      2
Bus1086                   37919.1      71.1001     -17173.8       134663         0.05     0.765242      3
Bus1087                   22401.6     -64.2538      26060.6      71100.8         0.05     0.346488      3
Bus1088                   36023.5      85.2431      -652861  1.20112E+06         0.05     0.861942      2
Bus1089                    104749     -6.89674  2.41973E+06       611987         0.05    0.0518486      2
Bus109                4.07406E+07       82.373     -442.702      1512.81         0.05     0.160148      2
Bus1090                   79030.1     -118.361 -2.75585E+06  6.40773E+06         0.05     0.594792      2
Bus1091                   9965.13      97.0241  3.60012E+06   1.0821E+07         0.05      0.36611      4
Bus1092                   1604.55     -66.1314       626496  1.70936E+06         0.05     0.492133      2
Bus1093                  0.809167      7.19676       213.17      671.485         0.05     0.108972      2
Bus1094                   35.2467      173.207      55816.3       925721         0.05     0.751599      2
Bus1095                   24.0563     -48.5719       259721       392517         0.05     0.673568      2
Bus1096                   6.57903     -53.6983     -2017.31     -12410.3         0.05     0.904909      2
Bus1097                   4.34805      163.756     -112.123      20460.2         0.05     0.814855      2
Bus1098                   2.66386     -7.32057      1795.39       6627.4         0.05     0.940017      2
Bus1099                   1.52063     -97.2209     -843.467      1818.76         0.05     0.766206      2
Bus11                 3.22979E+06      179.404       4378.3      15921.2         0.05     0.749524      3
Bus110                3.79835E+07      140.987      735.621      701.744         0.05     0.269768      2
Bus1100                      1.05      83.0349      185.513      225.558         0.05     0.390489      1
Bus1101                      1.05     -155.972      324.382     -126.576         0.05     0.807634      1
Bus1102                   831.972      165.585      9908.29      12239.1         0.05     0.117643      2
Bus1103                   8458.48       3.9946       3614.1      50907.7         0.05     0.690594      2
Bus1104                   20379.4     -112.041     -30968.6       302434         0.05     0.614845      2
Bus1105                   4440.54     -143.288       120668      43968.2         0.05     0.312406      2
Bus1106                   72986.7     -35.2686      4197.16      97927.4         0.05     0.140078      3
Bus1107                    332911     -162.691     -29387.6       -32398         0.05     0.883913      3
Bus1108                    544181     -102.999      -454472       586456         0.05     0.387888      2
Bus1109                    404416      28.0497       836186       263749         0.05     0.341779      2
Bus111                1.50755E+07     -143.948       3069.5      12128.4         0.05      0.30269      4
Bus1110                   91232.7     -53.6028       888606  1.67356E+06         0.05     0.879622      2
Bus1111                    500331      64.7378 -1.43618E+06  4.64188E+06         0.05     0.377368      4
Bus1112                    128221      59.5083      -299164       943240         0.05      0.89568      2
Bus1113                   77650.6      171.427       100946      3610.39         0.05     0.449448      2
Bus1114                   17316.5      29.4519     -7075.37        78342         0.05     0.949187      2
Bus1115                   14138.5      36.2868      13489.5      19672.6         0.05     0.385527      2
Bus1116                   53026.5        29.86     -2337.83      2515.45         0.05     0.568496      2
Bus1117                   3501.78      83.9692      34.1001      689.457         0.05     0.617581      2
Bus1118                   2227.62     -145.012      362.277      2245.91         0.05     0.857548      2
Bus1119                   555.036      134.033      807.431      1922.34         0.05     0.805997      2
Bus112                1.28047E+07      34.6544     -233.283      304.734         0.05     0.383319      2
Bus1120                      1.05      63.3757      18.7004      -169.51         0.05     0.670684      1
Bus1121                      1.05      3.16928     -48.2761      43.3543         0.05     0.318003      1
Bus1122                   85.2106      -101.85      109.913      71.4124         0.05     0.135993      2
Bus1123                   2.56124      144.272     -9.84421       42.034         0.05     0.657577      2
Bus1124                    227.13      59.1771      4.62155      15.2311         0.05      0.74423      2
Bus1125                   642.645     -129.168      11.5816      18.8805         0.05     0.514427      2
Bus1126                   998.589     -176.697     -1612.08     -6335.49         0.05     0.747428      3
Bus1127                   10339.4     -60.1344  3.08646E+06  3.55166E+06         0.05     0.852249      3
Bus1128                   13784.9     -85.3266  1.23959E+07  3.55435E+07         0.05     0.269738      2
Bus1129                   58139.7      30.7581  2.11778E+07  4.68709E+07         0.05     0.562776      2
Bus113                1.02616E+07      139.435       104.86      391.849         0.05    0.0952608      2
Bus1130                   40787.8     -149.697 -2.51319E+07  3.80592E+07         0.05     0.345063      2
Bus1131                   59275.1      74.3165  1.07683E+07  4.39989E+07         0.05     0.611016      4
Bus1132                    176557      50.2935  1.35206E+07  2.16164E+07         0.05     0.230082      2
Bus1133                   30379.4      43.4755  5.35191E+06  2.85667E+07         0.05     0.155619      2
Bus1134                   5493.63     -176.802  2.49176E+06   2.1739E+07         0.05     0.835639      2
Bus1135                    1171.8       157.86  5.65806E+06  8.58813E+06         0.05     0.387578      2
Bus1136                   168.145      16.8354      -380486       768785         0.05     0.919503      2
Bus1137                   2.17103      68.1466       250231       453690         0.05     0.415472      2
Bus1138                    26.193     -147.013     -68236.3       113708         0.05     0.191605      2
Bus1139                 0.0218363       62.692     -71.7637      129.445         0.05   0.00922112      2
Bus114                7.32434E+06      172.765      292.954      237.065         0.05     0.296291      2
Bus1140                      1.05      88.7039       23.197       71.407         0.05     0.838113      1
Bus1141                      1.05      108.903      5.67156     -37.1229         0.05     0.881329      1
Bus1142                   593.187      67.9097       259.83      203.917         0.05     0.958599      2
Bus1143                   965.497     -53.0984     -89.5745      661.976         0.05     0.520163      2
Bus1144                   4107.03     -59.5693      12.2232     -1.18245         0.05     0.172226      2
Bus1145                     46093      12.1723      339.349      169.261         0.05     0.217424      2
Bus1146                   456.823     -169.523      103.378      1943.95         0.05      0.47043      3
Bus1147                   9856.29     -151.058     -29216.5      44130.9         0.05    0.0426849      3
Bus1148                    7019.1      63.5974       126922       397666         0.05     0.159786      2
Bus1149                   8724.21     -89.1564     -9211.33     -915.455         0.05     0.366072      2
Bus115                4.05503E+06      -66.695      161.968      151.571         0.05      0.16988      2
Bus1150                   14369.5       166.91  2.24351E+06  2.77114E+06         0.05     0.105072      2
Bus1151                   74166.1      176.071  1.22393E+07  2.55094E+07         0.05     0.287328      4
Bus1152                   20469.5     -147.332      -202258  7.75501E+06         0.05     0.957306      2
Bus1153                   4308.88      36.1706      -287800  2.84014E+06         0.05     0.134021      2
Bus1154                   243.346     -167.738     -33204.6     -21065.1         0.05    0.0955218      2
Bus1155                   25.5198     -61.3635      541.016      571.082         0.05    0.0724854      2
Bus1156                   0.74486      117.069      4395.74      7718.31         0.05     0.671641      2
Bus1157                   4.89923       -84.77      -1647.4      4229.06         0.05     0.460066      2
Bus1158                  0.820663      56.1997     -168.051     -173.754         0.05     0.946364      2
Bus1159                 0.0304782     -8.79531      12.2651     -9.25756         0.05     0.100418      2
Bus116                     110302     -129.412      174.393      61.7978         0.05    0.0147961      2
Bus1160                      1.05      -110.03      11.9617      61.7851         0.05     0.564978      1
Bus1161                      1.05      150.459     0.738901      32.8823         0.05     0.287829      1
Bus1162                   509.579     -90.9229      6.75024      4.86676         0.05     0.614175      2
Bus1163                   1071.81     -119.336     -1.25384     0.950896         0.05     0.825112      2
Bus1164                   9969.18      166.636      55.3197      68.7002         0.05     0.996716      2
Bus1165                   34955.5     -92.8015      49.7507      311.612         0.05     0.268606      2
Bus1166                    239215     -77.8246      489.196      220.858         0.05     0.147286      3
Bus1167                   5804.55      92.0419     -10868.5      29820.2         0.05     0.740061      3
Bus1168                   6013.17      -135.77       140615       519768         0.05     0.613809      2
Bus1169                    101804      -99.462       655317  1.63733E+06         0.05     0.561608      2
Bus117                 2.7491E+06      131.265      107.943     -14.0249         0.05    0.0918003      2
Bus1170                    578435      89.6052  1.12948E+06  1.56266E+06         0.05     0.466023      2
Bus1171                    815120     -41.3823 -2.17902E+06  1.02374E+07         0.05     0.153024      4
Bus1172                    169197      107.143  1.95077E+06  2.26598E+06         0.05     0.425976      2
Bus1173                   89766.7      126.873      -369765       668828         0.05     0.848327      2
Bus1174                   12021.6      17.3342     -28208.8     -17408.5         0.05     0.967884      2
Bus1175                   3168.02     -179.446     -2817.02      46900.2         0.05     0.789355      2
Bus1176                   744.174      11.1102      14959.8      18777.5         0.05     0.359404      2
Bus1177                   108.058      76.9433      801.868      2051.85         0.05      0.61583      2
...

支路潮流============
母线1    -->   母线2            有功(1)    无功(1)    有功(2)    无功(2)   有功损耗   无功损耗   接地有功   接地无功
                                [p.u.]     [p.u.]     [p.u.]     [p.u.]     [p.u.]     [p.u.]     [p.u.]     [p.u.]
Bus1           Bus2            4.289E+07  2.546E+08  1.698E+14  8.421E+14  1.698E+14  8.421E+14          0 -3.078E+12
Bus10          Bus11          -5.916E+14   1.46E+15  1.083E+15  5.191E+14  4.918E+14  1.979E+15          0  -6.33E+12
Bus1001        Bus1002        -3.462E+06  1.116E+06  4.263E+10  1.676E+11  4.263E+10  1.676E+11          0 -6.073E+08
Bus1002        Bus1003        -9.879E+12  -3.53E+12   1.57E+14   6.44E+14  1.471E+14  6.404E+14          0 -2.554E+12
Bus1003        Bus1004         -2.58E+14  6.576E+14  4.289E+14  5.901E+13  1.708E+14  7.166E+14          0 -3.005E+12
Bus1004        Bus1005         7.683E+13   1.99E+14 -3.764E+13 -2.114E+13   3.92E+13  1.778E+14          0 -9.673E+11
Bus1005        Bus1006         -3.28E+13  6.188E+13   1.42E+14  4.041E+14  1.092E+14  4.659E+14          0  -1.49E+12
Bus1006        Bus1007         1.382E+13  3.639E+14  6.959E+13 -2.512E+13  8.341E+13  3.388E+14          0 -1.444E+12
Bus1006        Bus1027         4.848E+14 -7.872E+13 -3.759E+14  6.566E+14  1.089E+14  5.778E+14          0 -4.499E+12
Bus1007        Bus1008         3.717E+12   9.68E+12 -2.402E+12 -3.133E+12  1.315E+12  6.547E+12          0 -5.565E+10
Bus1008        Bus1009        -1.514E+13  2.879E+11  3.928E+13  9.472E+13  2.414E+13  9.501E+13          0 -3.429E+11
Bus1009        Bus1010        -4.453E+13  1.247E+14  7.426E+13  3.596E+13  2.973E+13  1.607E+14          0 -4.457E+11
Bus101         Bus102          1.392E+08  7.536E+07  7.532E+13  3.235E+14  7.532E+13  3.235E+14          0 -1.103E+12
Bus1010        Bus1011         7.908E+13   8.22E+13 -2.088E+13  2.204E+14   5.82E+13  3.026E+14          0 -7.015E+11
Bus1011        Bus1012         3.192E+13  7.099E+13 -2.288E+13 -3.385E+13  9.031E+12  3.713E+13          0 -7.147E+11
Bus1011        Bus1031         1.278E+13  2.458E+14  5.667E+13  1.248E+14  6.945E+13  3.706E+14          0 -6.876E+11
Bus1012        Bus1013         1.301E+13  3.981E+13 -4.514E+12   1.69E+12    8.5E+12   4.15E+13          0 -1.587E+11
Bus1013        Bus1014         9.362E+12 -6.447E+11  2.027E+13   1.55E+14  2.963E+13  1.544E+14          0 -5.646E+11
Bus1014        Bus1015        -1.152E+14  6.774E+13  1.406E+14  4.887E+13   2.54E+13  1.166E+14          0 -1.234E+12
Bus1015        Bus1016         1.226E+14  6.844E+13 -1.015E+14  3.529E+13  2.107E+13  1.037E+14          0 -1.029E+12
Bus1016        Bus1017         -2.33E+13  9.793E+13  4.305E+13 -6.348E+12  1.975E+13  9.159E+13          0 -4.362E+11
Bus1017        Bus1018         5.028E+12  1.073E+13 -3.349E+12 -3.926E+12  1.679E+12  6.807E+12          0 -8.821E+10
Bus1018        Bus1019         1.064E+12  3.273E+12 -4.236E+11 -3.518E+11  6.401E+11  2.921E+12          0 -1.287E+10
Bus1019        Bus1020         1.706E+10  9.344E+10  -1.57E+06 -2.116E+06  1.706E+10  9.344E+10          0 -3.672E+08
Bus102         Bus103          4.843E+14  5.853E+14 -1.146E+14  1.154E+15  3.697E+14   1.74E+15          0  -3.67E+12
Bus1021        Bus1022        -1.549E+05  2.187E+05  2.043E+08  9.497E+08  2.041E+08  9.499E+08          0 -3.296E+06
Bus1022        Bus1023         8.505E+09  9.161E+08  9.241E+09  7.236E+10  1.775E+10  7.327E+10          0 -2.462E+08
Bus1023        Bus1024        -1.167E+11  2.965E+11  4.089E+11  1.108E+12  2.922E+11  1.404E+12          0 -3.754E+09
Bus1024        Bus1025        -1.863E+12 -9.529E+11  2.932E+12  5.189E+12  1.068E+12  4.236E+12          0 -2.808E+10
Bus1025        Bus1026         3.528E+13 -1.544E+13  8.546E+12  1.966E+14  4.383E+13  1.812E+14          0 -7.408E+11
Bus1026        Bus1027        -3.659E+14  5.443E+13  5.153E+14   5.71E+14  1.494E+14  6.254E+14          0 -3.873E+12
Bus1026        Bus1047         5.113E+13  2.722E+14  1.219E+13  6.554E+13  6.332E+13  3.378E+14          0 -7.721E+11
Bus1027        Bus1028         5.778E+14  7.447E+14 -3.918E+14  1.905E+14   1.86E+14  9.352E+14          0 -3.597E+12
Bus1028        Bus1029        -1.307E+14  1.563E+14  1.774E+14  4.696E+13  4.674E+13  2.033E+14          0 -1.207E+12
Bus1029        Bus1030         2.608E+14  2.774E+12 -1.676E+14  3.976E+14  9.322E+13  4.004E+14          0 -1.939E+12
Bus103         Bus104           8.37E+14  7.127E+14 -5.181E+14  7.601E+14  3.189E+14  1.473E+15          0 -4.135E+12
Bus1030        Bus1031         2.505E+13  3.101E+14  2.868E+13 -9.882E+13  5.373E+13  2.113E+14          0 -1.508E+12
Bus1031        Bus1032         4.431E+13   1.41E+14  5.269E+13   2.98E+14    9.7E+13   4.39E+14          0 -8.673E+11
Bus1031        Bus1051         6.446E+12  4.709E+13  1.945E+12 -2.393E+12  8.391E+12   4.47E+13          0 -1.631E+11
Bus1032        Bus1033        -2.889E+13  3.979E+13  3.106E+13 -2.887E+13  2.174E+12  1.091E+13          0 -1.202E+12
Bus1033        Bus1034         1.098E+13  1.716E+14  3.179E+13  3.246E+13  4.276E+13  2.041E+14          0 -4.912E+11
Bus1034        Bus1035         3.881E+11  6.231E+12  3.911E+11 -2.303E+12  7.792E+11  3.927E+12          0 -3.501E+10
Bus1035        Bus1036          8.49E+10  1.234E+12   1.78E+11 -1.415E+11  2.629E+11  1.092E+12          0   -4.8E+09
Bus1036        Bus1037          7.74E+10 -1.953E+10 -5.008E+10   1.49E+11  2.732E+10  1.295E+11          0 -6.883E+08
Bus1037        Bus1038         3.129E+10  1.483E+11 -5.408E+09  -2.29E+10  2.589E+10  1.254E+11          0  -6.19E+08
Bus1038        Bus1039         8.298E+08  2.793E+09 -3.659E+08 -8.223E+08  4.639E+08  1.971E+09          0  -1.58E+07
Bus1039        Bus1040         8.843E+07  3.849E+08       2610  1.699E+05  8.844E+07  3.851E+08          0 -1.314E+06
Bus104         Bus105          7.193E+15  1.385E+15  1.393E+16  9.608E+16  2.112E+16  9.746E+16          0 -3.083E+14
Bus1041        Bus1042         1.578E+04 -1.331E+05  5.808E+07  2.307E+08   5.81E+07  2.306E+08          0 -8.316E+05
Bus1042        Bus1043         -1.74E+08  -5.77E+08   4.63E+08  2.057E+09   2.89E+08   1.48E+09          0 -1.094E+07
Bus1043        Bus1044        -4.501E+09 -9.923E+09  1.322E+10  4.908E+10  8.716E+09  3.915E+10          0 -2.136E+08
Bus1044        Bus1045         7.436E+10  9.039E+10 -3.064E+10  1.239E+11  4.372E+10  2.143E+11          0 -4.562E+08
Bus1045        Bus1046         1.586E+11  1.383E+10 -8.305E+10  3.055E+11  7.558E+10  3.193E+11          0 -1.434E+09
Bus1046        Bus1047         1.587E+12  1.411E+12  1.258E+12  1.343E+13  2.844E+12  1.484E+13          0 -4.457E+10
Bus1046        Bus1067         6.826E+10  3.091E+11 -1.002E+10   1.23E+09  5.824E+10  3.103E+11          0 -1.039E+09
Bus1047        Bus1048         1.774E+13   1.17E+13 -1.097E+13  2.462E+13  6.766E+12  3.632E+13          0 -1.189E+11
Bus1048        Bus1049          2.02E+13   5.59E+12 -1.484E+13  1.552E+13  5.368E+12  2.111E+13          0  -1.26E+11
Bus1049        Bus1050        -1.783E+12  2.189E+13  6.248E+12  7.569E+11  4.464E+12  2.264E+13          0 -8.076E+10
Bus105         Bus106         -2.697E+16  4.224E+17  4.093E+17  1.348E+18  3.824E+17  1.771E+18          0 -3.995E+15
Bus1050        Bus1051         8.405E+11  1.316E+12 -5.265E+11  9.154E+10   3.14E+11  1.407E+12          0 -6.384E+09
Bus1051        Bus1052         1.835E+11  1.594E+11 -1.273E+11  1.239E+11  5.628E+10  2.833E+11          0 -1.096E+09
Bus1051        Bus1071         5.039E+11 -3.401E+11 -1.781E+11  2.073E+12  3.257E+11  1.733E+12          0 -8.706E+09
Bus1052        Bus1053         5.341E+10  6.919E+10 -3.897E+10  7.423E+08  1.444E+10  6.993E+10          0 -4.226E+08
Bus1053        Bus1054        -1.571E+09 -3.192E+09  1.696E+09  3.579E+09   1.25E+08  3.862E+08          0 -1.654E+08
Bus1054        Bus1055         7.916E+09  2.969E+10 -8.436E+08  2.584E+09  7.072E+09  3.228E+10          0 -8.856E+07
Bus1055        Bus1056         1.007E+09  7.029E+08   3.28E+08  6.169E+09  1.335E+09  6.872E+09          0 -1.796E+07
Bus1056        Bus1057         1.118E+09  5.263E+09  5.978E+07 -1.551E+08  1.177E+09  5.108E+09          0 -1.773E+07
Bus1057        Bus1058         1.843E+06  4.672E+06  -8.52E+05  2.049E+04  9.908E+05  4.692E+06          0 -2.011E+04
Bus1058        Bus1059              5155  1.037E+05  1.128E+04 -3.346E+04  1.643E+04  7.024E+04          0     -517.4
Bus1059        Bus1060              4004  1.733E+04     -260.1       1143       3744  1.847E+04          0     -65.27
Bus106         Bus107          6.408E+16  9.281E+17  1.175E+17 -1.113E+17  1.816E+17  8.168E+17          0 -3.343E+15
Bus106         Bus127          1.946E+18  1.503E+18 -9.442E+17   3.84E+18  1.002E+18  5.343E+18          0 -1.302E+16
Bus1061        Bus1062              2982       6038  1.283E+05   6.02E+05  1.313E+05   6.08E+05          0      -2311
Bus1062        Bus1063        -6.712E+05  1.205E+05   8.45E+05  6.168E+05  1.738E+05  7.374E+05          0      -7655
Bus1063        Bus1064        -8.527E+05 -3.495E+06  2.839E+06  1.174E+07  1.987E+06  8.245E+06          0 -6.596E+04
Bus1064        Bus1065        -1.469E+07   6.85E+07  7.613E+07  2.119E+08  6.145E+07  2.804E+08          0 -7.169E+05
Bus1065        Bus1066         4.234E+09 -2.348E+09  2.466E+10  1.333E+11  2.889E+10  1.309E+11          0 -5.067E+08
Bus1066        Bus1067         1.985E+10  1.346E+11  5.706E+09 -2.963E+09  2.555E+10  1.316E+11          0 -4.758E+08
Bus1066        Bus1087         6.026E+10  2.054E+11 -1.906E+09   1.06E+11  5.836E+10  3.114E+11          0 -5.883E+08
Bus1067        Bus1068         2.928E+09 -6.505E+09  3.466E+10  1.696E+11  3.759E+10  1.631E+11          0 -6.111E+08
Bus1068        Bus1069        -2.386E+10  1.579E+11  5.792E+10 -2.117E+10  3.406E+10  1.368E+11          0 -6.366E+08
Bus1069        Bus1070         2.089E+10  1.916E+11  2.702E+11  1.119E+12  2.911E+11  1.311E+12          0 -3.074E+09
Bus107         Bus108         -5.586E+16 -4.843E+16  8.986E+16  2.118E+17  3.401E+16  1.634E+17          0 -1.206E+15
Bus1070        Bus1071         1.602E+12  3.393E+11 -1.016E+12  2.339E+12  5.861E+11  2.678E+12          0 -1.152E+10
Bus1071        Bus1072         1.048E+12  2.039E+12 -5.468E+11  2.083E+11  5.012E+11  2.247E+12          0 -8.571E+09
Bus1071        Bus1091         4.495E+11  2.544E+12  5.181E+10  1.283E+11  5.013E+11  2.672E+12          0  -8.05E+09
Bus1072        Bus1073         4.774E+10  1.404E+11 -1.826E+10  5.183E+09  2.948E+10  1.456E+11          0 -4.928E+08
Bus1073        Bus1074        -1.609E+09 -7.054E+09  6.118E+09   2.76E+10  4.509E+09  2.054E+10          0 -1.344E+08
Bus1074        Bus1075         3.813E+09  3.433E+10  2.379E+09 -3.935E+09  6.191E+09   3.04E+10          0 -1.379E+08
Bus1075        Bus1076         1.654E+08  7.622E+08  1.577E+07  1.018E+08  1.812E+08   8.64E+08          0 -2.177E+06
Bus1076        Bus1077        -2.315E+06   1.04E+07   4.21E+06 -6.838E+05  1.895E+06  9.721E+06          0 -5.063E+04
Bus1077        Bus1078         4.261E+05  1.791E+06   -9.5E+04       1154  3.311E+05  1.793E+06          0      -5676
Bus1078        Bus1079         1.019E+04       5063      -4618  2.082E+04       5571  2.589E+04          0      -71.6
Bus1079        Bus1080              3915  1.789E+04      248.4       1179       4164  1.907E+04          0     -58.28
Bus108         Bus109          1.107E+17  1.183E+17 -9.066E+16 -3.614E+16  2.001E+16  8.213E+16          0 -1.292E+15
Bus1081        Bus1082            -467.4      -1302       6482  2.591E+04       6015  2.461E+04          0     -101.1
Bus1082        Bus1083        -2.391E+06  -1.36E+06  6.301E+07   2.59E+08  6.062E+07  2.576E+08          0 -9.643E+05
Bus1083        Bus1084         1.314E+07  3.392E+08  6.828E+07  9.546E+07  8.142E+07  4.347E+08          0 -1.004E+06
Bus1084        Bus1085        -8.998E+07 -3.631E+08  9.937E+08  4.573E+09  9.037E+08   4.21E+09          0 -1.771E+07
Bus1085        Bus1086         3.577E+09  2.649E+10  2.791E+10  1.146E+11  3.149E+10   1.41E+11          0 -3.856E+08
Bus1086        Bus1087         6.669E+10  1.292E+11 -2.573E+10  8.201E+10  4.097E+10  2.112E+11          0 -4.216E+08
Bus1086        Bus1107        -5.924E+11  7.504E+11  2.246E+12  8.064E+12  1.654E+12  8.815E+12          0 -2.588E+10
Bus1087        Bus1088        -8.765E+09  8.433E+10  5.678E+10  1.239E+11  4.802E+10  2.082E+11          0 -3.984E+08
Bus1088        Bus1089         2.748E+11  3.499E+10 -7.267E+10  7.999E+11  2.021E+11  8.349E+11          0  -2.73E+09
Bus1089        Bus1090         6.969E+11    8.4E+11 -3.993E+11  7.204E+11  2.976E+11   1.56E+12          0 -4.271E+09
Bus109         Bus110         -7.511E+16  7.165E+16  9.378E+16   2.45E+16  1.868E+16  9.615E+16          0 -6.705E+14
Bus1090        Bus1091         1.355E+11  4.574E+11 -1.957E+10  5.704E+10   1.16E+11  5.145E+11          0 -1.401E+09
Bus1091        Bus1092          1.76E+09  7.408E+09 -7.543E+07  1.227E+09  1.685E+09  8.635E+09          0 -2.281E+07
Bus1091        Bus1111         1.316E+11 -3.207E+11  3.015E+12  1.708E+13  3.146E+12  1.676E+13          0 -5.774E+10
Bus1092        Bus1093         3.854E+07  1.668E+08  7.528E+04 -4.284E+04  3.862E+07  1.668E+08          0 -5.674E+05
Bus1093        Bus1094             -43.8       1963  1.882E+04  8.318E+04  1.878E+04  8.515E+04          0     -269.9
Bus1094        Bus1095             -7011  1.344E+05  5.768E+04  7.161E+04  5.067E+04   2.06E+05          0       -408
Bus1095        Bus1096              7026  2.684E+04      -2573      -7186       4453  1.965E+04          0     -148.1
Bus1096        Bus1097              2055       4184     -607.7       3022       1447       7205          0     -15.67
Bus1097        Bus1098             501.4       2034      109.8       1280      611.2       3314          0      -5.61
Bus1098        Bus1099             349.6        418       -240      198.6      109.6      616.5          0     -2.402
Bus1099        Bus1100             52.81      269.5      35.63      186.4      88.45      455.9          0    -0.7159
Bus11          Bus12           2.953E+13  1.048E+15  3.444E+14  4.407E+14  3.739E+14  1.489E+15          0 -3.191E+12
Bus11          Bus31           1.349E+14  9.385E+14  9.032E+13  2.628E+14  2.252E+14  1.201E+15          0 -2.611E+12
Bus110         Bus111         -1.605E+16  9.314E+16  3.749E+16 -3.464E+15  2.144E+16  8.967E+16          0 -4.065E+14
Bus1101        Bus1102         2.652E+04 -5.267E+04  9.492E+06  4.558E+07  9.518E+06  4.553E+07          0   -1.7E+05
Bus1102        Bus1103         2.626E+08  4.439E+08  1.107E+09   5.11E+09   1.37E+09  5.554E+09          0 -1.721E+07
Bus1103        Bus1104          1.26E+10  7.985E+09 -3.992E+09  3.565E+10  8.611E+09  4.364E+10          0 -1.087E+08
Bus1104        Bus1105         7.395E+09  2.133E+10   -3.8E+09 -3.161E+09  3.596E+09  1.816E+10          0 -1.098E+08
Bus1105        Bus1106        -1.844E+10  1.247E+10  1.012E+11  3.503E+11   8.28E+10  3.627E+11          0 -1.324E+09
Bus1106        Bus1107         1.498E+12  1.094E+12  1.858E+11  8.438E+12  1.684E+12  9.532E+12          0 -2.635E+10
Bus1106        Bus1127         8.242E+10  3.173E+11 -2.957E+10 -3.606E+10  5.285E+10  2.813E+11          0 -1.253E+09
Bus1107        Bus1108        -1.017E+13  3.937E+12  1.398E+13  1.101E+13  3.811E+12  1.495E+13          0 -9.206E+10
Bus1108        Bus1109        -4.381E+12  3.077E+13  1.514E+13  1.747E+13  1.076E+13  4.824E+13          0 -9.518E+10
Bus1109        Bus1110         4.908E+12  9.717E+12 -2.339E+12  7.738E+11  2.569E+12  1.049E+13          0 -4.248E+10
Bus111         Bus112          5.063E+15  2.856E+16  4.891E+15  2.415E+16  9.954E+15  5.271E+16          0 -8.176E+13
Bus111         Bus131          1.428E+15  1.717E+16  1.988E+15  1.038E+15  3.415E+15  1.821E+16          0 -5.328E+13
Bus1110        Bus1111        -2.347E+12  2.564E+12  6.272E+12  1.796E+13  3.924E+12  2.052E+13          0 -5.352E+10
Bus1111        Bus1112         2.893E+12  1.215E+13 -1.023E+12 -3.052E+12  1.869E+12  9.096E+12          0 -6.356E+10
Bus1111        Bus1131         2.532E+12  1.537E+13  8.492E+09 -1.853E+12   2.54E+12  1.352E+13          0 -5.852E+10
Bus1112        Bus1113        -3.556E+11    1.5E+12  7.645E+11  5.385E+11  4.088E+11  2.039E+12          0 -4.631E+09
Bus1113        Bus1114         1.479E+11  4.473E+11 -3.567E+10  9.907E+10  1.122E+11  5.464E+11          0 -1.494E+09
Bus1114        Bus1115        -1.059E+09  4.099E+09  1.264E+09 -3.327E+09  2.049E+08  7.723E+08          0 -1.203E+08
Bus1115        Bus1116        -1.453E+09 -3.643E+10  2.069E+10  1.343E+11  1.924E+10  9.791E+10          0 -7.032E+08
Bus1116        Bus1117         3.513E+10  1.804E+11  8.329E+09 -8.894E+09  4.346E+10  1.715E+11          0 -6.873E+08
Bus1117        Bus1118        -1.501E+08  1.279E+09  5.528E+08  6.062E+08  4.026E+08  1.885E+09          0 -4.345E+06
Bus1118        Bus1119         1.554E+08  3.029E+08 -8.094E+07  2.625E+07   7.45E+07  3.292E+08          0 -1.333E+06
Bus1119        Bus1120         4.513E+06  1.996E+07 -3.859E+04      -4497  4.475E+06  1.995E+07          0 -7.456E+04
Bus112         Bus113          -5.47E+15  1.524E+16  1.072E+16  7.337E+15  5.247E+15  2.257E+16          0 -6.204E+13
Bus1121        Bus1122              6255      229.5  1.135E+05  4.936E+05  1.198E+05  4.938E+05          0      -1510
Bus1122        Bus1123         1.351E+05  4.914E+05 -1.191E+04       9713  1.232E+05  5.011E+05          0      -1814
Bus1123        Bus1124         3.706E+04 -1.022E+04   6.22E+05  3.341E+06  6.591E+05  3.331E+06          0 -1.112E+04
Bus1124        Bus1125          1.21E+06  1.338E+07  8.886E+06  3.689E+07   1.01E+07  5.026E+07          0 -1.052E+05
Bus1125        Bus1126         3.065E+07 -8.774E+06 -2.222E+07  4.397E+07  8.428E+06   3.52E+07          0 -3.593E+05
Bus1126        Bus1127        -5.267E+08  5.245E+08  2.421E+09  7.282E+09  1.894E+09  7.807E+09          0 -2.513E+07
Bus1126        Bus1147        -3.984E+08 -4.923E+08  1.444E+09  6.058E+09  1.045E+09  5.566E+09          0 -2.263E+07
Bus1127        Bus1128         3.691E+09 -2.427E+09 -3.091E+09  4.942E+09  6.001E+08  2.516E+09          0 -7.429E+07
Bus1128        Bus1129        -3.927E+10  4.466E+10   9.65E+10  2.309E+11  5.723E+10  2.756E+11          0  -7.72E+08
Bus1129        Bus1130         6.825E+10  3.797E+11      5E+10  2.661E+11  1.182E+11  6.458E+11          0 -1.102E+09
Bus113         Bus114         -2.035E+15  3.488E+15   2.59E+15 -1.306E+15  5.551E+14  2.182E+15          0 -3.303E+13
Bus1130        Bus1131         1.515E+11  2.032E+11 -4.723E+10   3.65E+11  1.043E+11  5.683E+11          0 -1.197E+09
Bus1131        Bus1132         1.893E+11 -4.626E+11    4.5E+10  1.479E+12  2.343E+11  1.016E+12          0  -7.89E+09
Bus1131        Bus1151        -2.418E+11  3.616E+11  3.823E+11  3.874E+11  1.405E+11   7.49E+11          0 -2.078E+09
Bus1132        Bus1133         3.801E+11  1.692E+12 -9.967E+10 -2.829E+11  2.804E+11  1.409E+12          0 -7.976E+09
Bus1133        Bus1134         7.532E+09  6.916E+10  9.149E+09  8.683E+09  1.668E+10  7.784E+10          0 -2.192E+08
Bus1134        Bus1135         5.336E+08  1.509E+09 -2.412E+08 -2.436E+08  2.925E+08  1.265E+09          0 -6.538E+06
Bus1135        Bus1136         2.848E+07  9.837E+07 -5.732E+06  1.358E+07  2.275E+07  1.119E+08          0 -3.474E+05
Bus1136        Bus1137          3.61E+05  1.863E+06  1.593E+04 -1.873E+04  3.769E+05  1.845E+06          0      -6418
Bus1137        Bus1138             -1311       3812  1.355E+04  4.655E+04  1.224E+04  5.036E+04          0       -174
Bus1138        Bus1139              8987  4.424E+04     -11.83      35.86       8975  4.427E+04          0     -152.9
Bus1139        Bus1140            -0.993     -1.177      18.09      71.58       17.1       70.4          0    -0.2326
Bus114         Bus115         -7.466E+14  5.081E+15  2.219E+15  1.785E+15  1.472E+15  6.867E+15          0 -1.551E+13
Bus1141        Bus1142         1.933E+04 -3.656E+04  5.306E+06  2.267E+07  5.325E+06  2.264E+07          0 -7.803E+04
Bus1142        Bus1143         4.294E+07  3.591E+07  -1.42E+07  8.988E+07  2.875E+07  1.258E+08          0 -2.721E+05
Bus1143        Bus1144        -1.551E+07 -2.045E+08  1.635E+08  8.516E+08  1.479E+08  6.471E+08          0  -4.49E+06
Bus1144        Bus1145        -1.241E+10  1.323E+08  4.508E+10  1.312E+11  3.267E+10  1.314E+11          0 -5.381E+08
Bus1145        Bus1146         2.809E+10  1.457E+11  3.212E+08   1.44E+09  2.841E+10  1.471E+11          0 -4.722E+08
Bus1146        Bus1147        -1.412E+08 -2.493E+08  1.187E+09  6.045E+09  1.046E+09  5.795E+09          0 -2.201E+07
Bus1146        Bus1167         1.901E+08  7.392E+06  2.608E+08  2.395E+09  4.509E+08  2.403E+09          0 -7.816E+06
Bus1147        Bus1148         5.205E+09  9.688E+09 -8.826E+08  7.785E+09  4.323E+09  1.747E+10          0 -3.173E+07
Bus1148        Bus1149         3.219E+09  6.422E+09 -1.036E+08  8.924E+09  3.115E+09  1.535E+10          0 -2.708E+07
Bus1149        Bus1150         9.921E+09   5.13E+09 -4.291E+09  1.786E+10   5.63E+09  2.299E+10          0 -5.885E+07
Bus115         Bus116          2.541E+14  1.039E+15 -2.838E+13 -6.865E+12  2.257E+14  1.032E+15          0 -3.872E+12
Bus1150        Bus1151        -2.409E+10 -5.419E+10  7.826E+10  2.944E+11  5.417E+10  2.402E+11          0 -1.341E+09
Bus1151        Bus1152        -6.832E+09  2.986E+11  5.084E+10  -6.54E+10  4.401E+10  2.332E+11          0 -1.323E+09
Bus1151        Bus1171         -1.86E+12  4.195E+12  1.182E+13  4.889E+13  9.958E+12  5.308E+13          0 -1.545E+11
Bus1152        Bus1153         7.897E+09  3.276E+10  1.237E+09      7E+09  9.134E+09  3.976E+10          0 -9.325E+07
Bus1153        Bus1154         2.326E+08  1.335E+09  4.266E+07  6.381E+07  2.752E+08  1.399E+09          0 -4.521E+06
Bus1154        Bus1155         5.649E+05  4.035E+06   4.24E+05   6.27E+04  9.888E+05  4.098E+06          0  -1.27E+04
Bus1155        Bus1156         1.088E+04  4.416E+04        353       1284  1.124E+04  4.544E+04          0     -165.9
Bus1156        Bus1157            -34.05      274.8      464.8       1756      430.7       2031          0     -5.655
Bus1157        Bus1158             237.2       1846      226.1      215.7      463.4       2062          0     -5.158
Bus1158        Bus1159             11.46      41.69     -1.588    -0.2711      9.877      41.42          0     -0.145
Bus1159        Bus1160             2.178   -0.02949      15.61      73.16      17.78      73.13          0    -0.2272
Bus116         Bus117           2.08E+13 -8.694E+11  1.053E+14  5.062E+14  1.261E+14  5.053E+14          0 -1.806E+12
Bus1161        Bus1162        -2.778E+04  2.265E+04  3.193E+06  1.705E+07  3.166E+06  1.707E+07          0 -5.451E+04
Bus1162        Bus1163           1.5E+07 -1.869E+07 -9.113E+06  4.923E+07  5.891E+06  3.054E+07          0 -3.088E+05
Bus1163        Bus1164         6.449E+08 -2.499E+08   5.82E+08  6.385E+09  1.227E+09  6.135E+09          0  -2.12E+07
Bus1164        Bus1165        -2.047E+10  1.594E+10  4.187E+10  8.055E+10   2.14E+10  9.649E+10          0 -3.064E+08
Bus1165        Bus1166        -2.253E+11 -4.214E+11  7.446E+11  3.169E+12  5.193E+11  2.747E+12          0 -1.403E+10
Bus1166        Bus1167          8.12E+11  3.753E+12  3.547E+10  8.647E+10  8.474E+11  3.839E+12          0 -1.303E+10
Bus1166        Bus1187         6.676E+11  4.104E+12  1.229E+11  1.087E+11  7.905E+11  4.213E+12          0 -1.321E+10
Bus1167        Bus1168        -1.019E+09  4.164E+09  2.493E+09  3.676E+09  1.474E+09  7.841E+09          0 -1.568E+07
Bus1168        Bus1169        -3.068E+10 -2.606E+10  1.574E+11  6.607E+11  1.267E+11  6.346E+11          0 -2.304E+09
Bus1169        Bus1170          1.53E+12  4.273E+12  4.757E+12  2.528E+13  6.287E+12  2.955E+13          0 -8.745E+10
...

总计================
总出力：有功 1.0757E+13 p.u.，无功 5.06867E+13 p.u.。
总负载：有功 500 p.u.，无功 5003.41 p.u.。
总网损：有功 3.76622E+19 p.u.，无功 1.90513E+20 p.u.。
接地支路损耗：有功 0 p.u.，无功 -5.96502E+17 p.u.。
